* NGSPICE file created from ALU.ext - technology: gf180mcuD

.subckt MUX21 a_1472_63# a_157_63# a_25_271# a_909_n37# a_650_n277# a_517_n37# a_718_407#
+ m2_540_79# via_dev$11_4/VSUBS a_846_955# w_n310_281#
X0 a_1472_63# m2_540_79# via_dev$11_4/VSUBS via_dev$11_4/VSUBS nfet_03v3 ad=0.2625p pd=2.05u as=0.265p ps=2.06u w=0.5u l=0.28u
X1 a_157_63# a_25_271# w_n310_281# w_n310_281# pfet_03v3 ad=0.65p pd=3.3u as=0.635p ps=3.27u w=1u l=0.28u
X2 a_718_407# a_650_n277# m2_540_79# w_n310_281# pfet_03v3 ad=0.675p pd=2.675u as=0.725p ps=2.725u w=2u l=0.28u
X3 a_517_n37# a_25_271# via_dev$11_4/VSUBS via_dev$11_4/VSUBS nfet_03v3 ad=0.3625p pd=1.725u as=0.54p ps=3.08u w=1u l=0.28u
X4 via_dev$11_4/VSUBS a_157_63# a_909_n37# via_dev$11_4/VSUBS nfet_03v3 ad=0.65p pd=3.3u as=0.3625p ps=1.725u w=1u l=0.28u
X5 m2_540_79# a_25_271# a_718_407# w_n310_281# pfet_03v3 ad=0.725p pd=2.725u as=1.09p ps=5.09u w=2u l=0.28u
X6 a_157_63# a_25_271# via_dev$11_4/VSUBS via_dev$11_4/VSUBS nfet_03v3 ad=0.315p pd=2.26u as=0.3175p ps=2.27u w=0.5u l=0.28u
X7 a_718_407# a_157_63# w_n310_281# w_n310_281# pfet_03v3 ad=1.3p pd=5.3u as=0.725p ps=2.725u w=2u l=0.28u
X8 a_909_n37# a_846_955# m2_540_79# via_dev$11_4/VSUBS nfet_03v3 ad=0.3625p pd=1.725u as=0.3375p ps=1.675u w=1u l=0.28u
X9 w_n310_281# a_846_955# a_718_407# w_n310_281# pfet_03v3 ad=0.725p pd=2.725u as=0.675p ps=2.675u w=2u l=0.28u
X10 a_1472_63# m2_540_79# w_n310_281# w_n310_281# pfet_03v3 ad=0.545p pd=3.09u as=0.53p ps=3.06u w=1u l=0.28u
X11 m2_540_79# a_650_n277# a_517_n37# via_dev$11_4/VSUBS nfet_03v3 ad=0.3375p pd=1.675u as=0.3625p ps=1.725u w=1u l=0.28u
C0 w_n310_281# a_25_271# 0.47695f
C1 a_25_271# a_718_407# 0.03028f
C2 a_846_955# m2_540_79# 0.017f
C3 a_650_n277# a_157_63# 0.02096f
C4 a_157_63# a_1472_63# 0.0156f
C5 w_n310_281# a_718_407# 0.7633f
C6 a_909_n37# m2_540_79# 0.01048f
C7 a_25_271# a_650_n277# 0.03814f
C8 a_846_955# a_157_63# 0.07151f
C9 a_25_271# a_1472_63# 0
C10 a_157_63# m2_540_79# 0.36591f
C11 a_517_n37# m2_540_79# 0.01733f
C12 w_n310_281# a_650_n277# 0.11257f
C13 w_n310_281# a_1472_63# 0.08569f
C14 a_650_n277# a_718_407# 0.01687f
C15 a_157_63# a_909_n37# 0.01329f
C16 a_25_271# m2_540_79# 0.03352f
C17 a_1472_63# a_718_407# 0.01268f
C18 w_n310_281# a_846_955# 0.19275f
C19 a_846_955# a_718_407# 0.01845f
C20 a_157_63# a_517_n37# 0.00935f
C21 w_n310_281# m2_540_79# 0.45246f
C22 a_718_407# m2_540_79# 0.49779f
C23 a_25_271# a_157_63# 0.11031f
C24 a_650_n277# a_1472_63# 0
C25 a_846_955# a_650_n277# 0.04128f
C26 w_n310_281# a_157_63# 0.32873f
C27 a_846_955# a_1472_63# 0
C28 a_650_n277# m2_540_79# 0.03687f
C29 a_157_63# a_718_407# 0.14486f
C30 a_517_n37# a_718_407# 0
C31 a_1472_63# m2_540_79# 0.0785f
C32 m2_540_79# via_dev$11_4/VSUBS 0.94619f
C33 a_718_407# via_dev$11_4/VSUBS 0.15332f
C34 a_909_n37# via_dev$11_4/VSUBS 0.01743f
C35 a_517_n37# via_dev$11_4/VSUBS 0.007f
C36 a_1472_63# via_dev$11_4/VSUBS 0.18031f
C37 a_157_63# via_dev$11_4/VSUBS 0.63396f
C38 a_650_n277# via_dev$11_4/VSUBS 0.37069f
C39 a_25_271# via_dev$11_4/VSUBS 0.66513f
C40 a_846_955# via_dev$11_4/VSUBS 0.36058f
C41 w_n310_281# via_dev$11_4/VSUBS 4.18493f
.ends

.subckt x1bitblock$2 a_2861_3# a_8361_407# a_6520_n37# a_1262_n37# a_2861_391# a_1845_466#
+ a_10906_n37# a_510_63# a_870_n37# a_6721_407# a_9800_n37# a_11480_63# a_6128_n37#
+ a_5768_63# a_8919_367# m2_6151_79# a_11922_391# a_5042_n37# a_9408_n37# a_9609_407#
+ a_5042_407# a_8160_n37# a_4158_271# a_11922_3# a_2419_63# m2_9431_79# a_10906_466#
+ a_4650_n37# a_9050_63# a_5243_407# a_7768_n37# a_3940_63# m2_7791_79# a_10363_63#
+ a_160_63# a_4290_63# a_7083_63# a_705_407# a_12559_3# a_7410_63# m2_5700_324# a_1845_n37#
+ via_dev$5$2_9/VSUBS m2_1295_79# a_8723_63# a_378_271# a_3498_3# w_n310_281# m2_24_342#
X0 a_2419_63# a_1845_466# via_dev$5$2_9/VSUBS via_dev$5$2_9/VSUBS nfet_03v3 ad=0.315p pd=2.26u as=0.2425p ps=1.97u w=0.5u l=0.28u
X1 a_1845_466# m2_24_342# a_1845_n37# via_dev$5$2_9/VSUBS nfet_03v3 ad=0.65p pd=3.3u as=0.42p ps=1.84u w=1u l=0.28u
X2 a_3940_63# m2_1295_79# w_n310_281# w_n310_281# pfet_03v3 ad=0.63p pd=3.26u as=0.65p ps=3.3u w=1u l=0.28u
X3 via_dev$5$2_9/VSUBS a_510_63# a_1262_n37# via_dev$5$2_9/VSUBS nfet_03v3 ad=0.65p pd=3.3u as=0.3625p ps=1.725u w=1u l=0.28u
X4 a_5243_407# a_4290_63# a_5042_407# w_n310_281# pfet_03v3 ad=1.3p pd=5.3u as=0.725p ps=2.725u w=2u l=0.28u
X5 a_6721_407# a_2419_63# m2_6151_79# w_n310_281# pfet_03v3 ad=0.675p pd=2.675u as=0.725p ps=2.725u w=2u l=0.28u
X6 a_10906_466# a_4158_271# w_n310_281# w_n310_281# pfet_03v3 ad=0.42p pd=1.84u as=0.65p ps=3.3u w=1u l=0.28u
X7 a_4290_63# a_4158_271# via_dev$5$2_9/VSUBS via_dev$5$2_9/VSUBS nfet_03v3 ad=0.315p pd=2.26u as=0.28p ps=2.12u w=0.5u l=0.28u
X8 w_n310_281# a_378_271# a_705_407# w_n310_281# pfet_03v3 ad=0.725p pd=2.725u as=1.09p ps=5.09u w=2u l=0.28u
X9 a_2861_3# m2_1295_79# via_dev$5$2_9/VSUBS via_dev$5$2_9/VSUBS nfet_03v3 ad=0.18125p pd=1.225u as=0.325p ps=2.3u w=0.5u l=0.28u
X10 via_dev$5$2_9/VSUBS a_2419_63# a_2861_3# via_dev$5$2_9/VSUBS nfet_03v3 ad=0.315p pd=2.26u as=0.18125p ps=1.225u w=0.5u l=0.28u
X11 m2_7791_79# m2_1295_79# a_7768_n37# via_dev$5$2_9/VSUBS nfet_03v3 ad=0.3375p pd=1.675u as=0.3625p ps=1.725u w=1u l=0.28u
X12 a_10906_n37# a_4158_271# via_dev$5$2_9/VSUBS via_dev$5$2_9/VSUBS nfet_03v3 ad=0.42p pd=1.84u as=0.63p ps=3.26u w=1u l=0.28u
X13 a_9050_63# a_8919_367# via_dev$5$2_9/VSUBS via_dev$5$2_9/VSUBS nfet_03v3 ad=0.31p pd=2.24u as=0.24p ps=1.96u w=0.5u l=0.28u
X14 a_11922_3# a_11480_63# via_dev$5$2_9/VSUBS via_dev$5$2_9/VSUBS nfet_03v3 ad=0.18125p pd=1.225u as=0.325p ps=2.3u w=0.5u l=0.28u
X15 via_dev$5$2_9/VSUBS a_2419_63# a_11922_3# via_dev$5$2_9/VSUBS nfet_03v3 ad=0.315p pd=2.26u as=0.18125p ps=1.225u w=0.5u l=0.28u
X16 a_705_407# a_510_63# m2_1295_79# w_n310_281# pfet_03v3 ad=1.3p pd=5.3u as=0.725p ps=2.725u w=2u l=0.28u
X17 a_4650_n37# a_4158_271# via_dev$5$2_9/VSUBS via_dev$5$2_9/VSUBS nfet_03v3 ad=0.3625p pd=1.725u as=0.54p ps=3.08u w=1u l=0.28u
X18 a_2861_3# a_2419_63# a_2861_391# w_n310_281# pfet_03v3 ad=1.3p pd=5.3u as=0.725p ps=2.725u w=2u l=0.28u
X19 a_5768_63# m2_5700_324# via_dev$5$2_9/VSUBS via_dev$5$2_9/VSUBS nfet_03v3 ad=0.315p pd=2.26u as=0.3175p ps=2.27u w=0.5u l=0.28u
X20 via_dev$5$2_9/VSUBS a_9050_63# a_9800_n37# via_dev$5$2_9/VSUBS nfet_03v3 ad=0.65p pd=3.3u as=0.3625p ps=1.725u w=1u l=0.28u
X21 a_8361_407# m2_1295_79# m2_7791_79# w_n310_281# pfet_03v3 ad=0.675p pd=2.675u as=0.725p ps=2.725u w=2u l=0.28u
X22 a_9408_n37# a_8919_367# via_dev$5$2_9/VSUBS via_dev$5$2_9/VSUBS nfet_03v3 ad=0.3625p pd=1.725u as=0.54p ps=3.08u w=1u l=0.28u
X23 a_3498_3# a_2861_3# w_n310_281# w_n310_281# pfet_03v3 ad=0.65p pd=3.3u as=0.675p ps=3.35u w=1u l=0.28u
X24 a_7410_63# m2_5700_324# via_dev$5$2_9/VSUBS via_dev$5$2_9/VSUBS nfet_03v3 ad=0.31p pd=2.24u as=0.24p ps=1.96u w=0.5u l=0.28u
X25 via_dev$5$2_9/VSUBS a_7410_63# a_8160_n37# via_dev$5$2_9/VSUBS nfet_03v3 ad=0.65p pd=3.3u as=0.3625p ps=1.725u w=1u l=0.28u
X26 a_8723_63# m2_7791_79# via_dev$5$2_9/VSUBS via_dev$5$2_9/VSUBS nfet_03v3 ad=0.2625p pd=2.05u as=0.265p ps=2.06u w=0.5u l=0.28u
X27 w_n310_281# a_4158_271# a_5243_407# w_n310_281# pfet_03v3 ad=0.725p pd=2.725u as=1.09p ps=5.09u w=2u l=0.28u
X28 a_5768_63# m2_5700_324# w_n310_281# w_n310_281# pfet_03v3 ad=0.65p pd=3.3u as=0.635p ps=3.27u w=1u l=0.28u
X29 a_9050_63# a_8919_367# w_n310_281# w_n310_281# pfet_03v3 ad=0.64p pd=3.28u as=0.48p ps=2.96u w=1u l=0.28u
X30 a_11922_391# a_11480_63# w_n310_281# w_n310_281# pfet_03v3 ad=0.725p pd=2.725u as=1.3p ps=5.3u w=2u l=0.28u
X31 a_160_63# m2_24_342# via_dev$5$2_9/VSUBS via_dev$5$2_9/VSUBS nfet_03v3 ad=0.315p pd=2.26u as=0.325p ps=2.3u w=0.5u l=0.28u
X32 a_9609_407# a_9050_63# w_n310_281# w_n310_281# pfet_03v3 ad=1.3p pd=5.3u as=0.725p ps=2.725u w=2u l=0.28u
X33 a_6128_n37# m2_5700_324# via_dev$5$2_9/VSUBS via_dev$5$2_9/VSUBS nfet_03v3 ad=0.3625p pd=1.725u as=0.54p ps=3.08u w=1u l=0.28u
X34 via_dev$5$2_9/VSUBS a_5768_63# a_6520_n37# via_dev$5$2_9/VSUBS nfet_03v3 ad=0.65p pd=3.3u as=0.3625p ps=1.725u w=1u l=0.28u
X35 a_7410_63# m2_5700_324# w_n310_281# w_n310_281# pfet_03v3 ad=0.64p pd=3.28u as=0.48p ps=2.96u w=1u l=0.28u
X36 m2_9431_79# a_8919_367# a_9609_407# w_n310_281# pfet_03v3 ad=0.725p pd=2.725u as=1.09p ps=5.09u w=2u l=0.28u
X37 a_11480_63# a_10906_466# via_dev$5$2_9/VSUBS via_dev$5$2_9/VSUBS nfet_03v3 ad=0.315p pd=2.26u as=0.2425p ps=1.97u w=0.5u l=0.28u
X38 a_1845_466# a_378_271# w_n310_281# w_n310_281# pfet_03v3 ad=0.42p pd=1.84u as=0.65p ps=3.3u w=1u l=0.28u
X39 a_8361_407# a_7410_63# w_n310_281# w_n310_281# pfet_03v3 ad=1.3p pd=5.3u as=0.725p ps=2.725u w=2u l=0.28u
X40 w_n310_281# m2_1295_79# a_10906_466# w_n310_281# pfet_03v3 ad=0.735p pd=2.47u as=0.42p ps=1.84u w=1u l=0.28u
X41 a_7083_63# m2_6151_79# via_dev$5$2_9/VSUBS via_dev$5$2_9/VSUBS nfet_03v3 ad=0.2625p pd=2.05u as=0.265p ps=2.06u w=0.5u l=0.28u
X42 a_510_63# a_378_271# w_n310_281# w_n310_281# pfet_03v3 ad=0.65p pd=3.3u as=0.56p ps=3.12u w=1u l=0.28u
X43 a_10363_63# m2_9431_79# w_n310_281# w_n310_281# pfet_03v3 ad=0.715p pd=3.43u as=0.53p ps=3.06u w=1u l=0.28u
X44 a_510_63# a_378_271# via_dev$5$2_9/VSUBS via_dev$5$2_9/VSUBS nfet_03v3 ad=0.315p pd=2.26u as=0.28p ps=2.12u w=0.5u l=0.28u
X45 a_1262_n37# a_160_63# m2_1295_79# via_dev$5$2_9/VSUBS nfet_03v3 ad=0.3625p pd=1.725u as=0.3375p ps=1.675u w=1u l=0.28u
X46 a_1845_n37# a_378_271# via_dev$5$2_9/VSUBS via_dev$5$2_9/VSUBS nfet_03v3 ad=0.42p pd=1.84u as=0.63p ps=3.26u w=1u l=0.28u
X47 m2_6151_79# m2_5700_324# a_6721_407# w_n310_281# pfet_03v3 ad=0.725p pd=2.725u as=1.09p ps=5.09u w=2u l=0.28u
X48 a_6721_407# a_5768_63# w_n310_281# w_n310_281# pfet_03v3 ad=1.3p pd=5.3u as=0.725p ps=2.725u w=2u l=0.28u
X49 a_10363_63# m2_9431_79# via_dev$5$2_9/VSUBS via_dev$5$2_9/VSUBS nfet_03v3 ad=0.3575p pd=2.43u as=0.265p ps=2.06u w=0.5u l=0.28u
X50 a_10906_466# m2_1295_79# a_10906_n37# via_dev$5$2_9/VSUBS nfet_03v3 ad=0.65p pd=3.3u as=0.42p ps=1.84u w=1u l=0.28u
X51 a_8723_63# m2_7791_79# w_n310_281# w_n310_281# pfet_03v3 ad=0.545p pd=3.09u as=0.53p ps=3.06u w=1u l=0.28u
X52 a_11480_63# a_10906_466# w_n310_281# w_n310_281# pfet_03v3 ad=0.65p pd=3.3u as=0.735p ps=2.47u w=1u l=0.28u
X53 a_12559_3# a_11922_3# via_dev$5$2_9/VSUBS via_dev$5$2_9/VSUBS nfet_03v3 ad=0.315p pd=2.26u as=0.325p ps=2.3u w=0.5u l=0.28u
X54 a_7083_63# m2_6151_79# w_n310_281# w_n310_281# pfet_03v3 ad=0.545p pd=3.09u as=0.53p ps=3.06u w=1u l=0.28u
X55 a_7768_n37# m2_5700_324# via_dev$5$2_9/VSUBS via_dev$5$2_9/VSUBS nfet_03v3 ad=0.3625p pd=1.725u as=0.54p ps=3.08u w=1u l=0.28u
X56 a_160_63# m2_24_342# w_n310_281# w_n310_281# pfet_03v3 ad=0.63p pd=3.26u as=0.65p ps=3.3u w=1u l=0.28u
X57 m2_1295_79# a_160_63# a_705_407# w_n310_281# pfet_03v3 ad=0.725p pd=2.725u as=0.675p ps=2.675u w=2u l=0.28u
X58 a_5042_n37# a_3940_63# a_5042_407# via_dev$5$2_9/VSUBS nfet_03v3 ad=0.3625p pd=1.725u as=0.3375p ps=1.675u w=1u l=0.28u
X59 m2_1295_79# m2_24_342# a_870_n37# via_dev$5$2_9/VSUBS nfet_03v3 ad=0.3375p pd=1.675u as=0.3625p ps=1.725u w=1u l=0.28u
X60 a_11922_3# a_2419_63# a_11922_391# w_n310_281# pfet_03v3 ad=1.3p pd=5.3u as=0.725p ps=2.725u w=2u l=0.28u
X61 a_9800_n37# a_7083_63# m2_9431_79# via_dev$5$2_9/VSUBS nfet_03v3 ad=0.3625p pd=1.725u as=0.3375p ps=1.675u w=1u l=0.28u
X62 m2_7791_79# m2_5700_324# a_8361_407# w_n310_281# pfet_03v3 ad=0.725p pd=2.725u as=1.09p ps=5.09u w=2u l=0.28u
X63 a_5042_407# a_3940_63# a_5243_407# w_n310_281# pfet_03v3 ad=0.725p pd=2.725u as=0.675p ps=2.675u w=2u l=0.28u
X64 a_3940_63# m2_1295_79# via_dev$5$2_9/VSUBS via_dev$5$2_9/VSUBS nfet_03v3 ad=0.315p pd=2.26u as=0.325p ps=2.3u w=0.5u l=0.28u
X65 a_8160_n37# a_3498_3# m2_7791_79# via_dev$5$2_9/VSUBS nfet_03v3 ad=0.3625p pd=1.725u as=0.3375p ps=1.675u w=1u l=0.28u
X66 a_705_407# m2_24_342# w_n310_281# w_n310_281# pfet_03v3 ad=0.675p pd=2.675u as=0.725p ps=2.725u w=2u l=0.28u
X67 a_5042_407# m2_1295_79# a_4650_n37# via_dev$5$2_9/VSUBS nfet_03v3 ad=0.3375p pd=1.675u as=0.3625p ps=1.725u w=1u l=0.28u
X68 a_6520_n37# a_5042_407# m2_6151_79# via_dev$5$2_9/VSUBS nfet_03v3 ad=0.3625p pd=1.725u as=0.3375p ps=1.675u w=1u l=0.28u
X69 w_n310_281# a_7083_63# a_9609_407# w_n310_281# pfet_03v3 ad=0.725p pd=2.725u as=0.675p ps=2.675u w=2u l=0.28u
X70 a_2419_63# a_1845_466# w_n310_281# w_n310_281# pfet_03v3 ad=0.65p pd=3.3u as=0.735p ps=2.47u w=1u l=0.28u
X71 m2_9431_79# a_8723_63# a_9408_n37# via_dev$5$2_9/VSUBS nfet_03v3 ad=0.3375p pd=1.675u as=0.3625p ps=1.725u w=1u l=0.28u
X72 w_n310_281# a_3498_3# a_8361_407# w_n310_281# pfet_03v3 ad=0.725p pd=2.725u as=0.675p ps=2.675u w=2u l=0.28u
X73 a_2861_391# m2_1295_79# w_n310_281# w_n310_281# pfet_03v3 ad=0.725p pd=2.725u as=1.3p ps=5.3u w=2u l=0.28u
X74 a_4290_63# a_4158_271# w_n310_281# w_n310_281# pfet_03v3 ad=0.65p pd=3.3u as=0.56p ps=3.12u w=1u l=0.28u
X75 a_5243_407# m2_1295_79# w_n310_281# w_n310_281# pfet_03v3 ad=0.675p pd=2.675u as=0.725p ps=2.725u w=2u l=0.28u
X76 w_n310_281# a_5042_407# a_6721_407# w_n310_281# pfet_03v3 ad=0.725p pd=2.725u as=0.675p ps=2.675u w=2u l=0.28u
X77 a_3498_3# a_2861_3# via_dev$5$2_9/VSUBS via_dev$5$2_9/VSUBS nfet_03v3 ad=0.315p pd=2.26u as=0.325p ps=2.3u w=0.5u l=0.28u
X78 a_9609_407# a_8723_63# m2_9431_79# w_n310_281# pfet_03v3 ad=0.675p pd=2.675u as=0.725p ps=2.725u w=2u l=0.28u
X79 via_dev$5$2_9/VSUBS a_4290_63# a_5042_n37# via_dev$5$2_9/VSUBS nfet_03v3 ad=0.65p pd=3.3u as=0.3625p ps=1.725u w=1u l=0.28u
X80 m2_6151_79# a_2419_63# a_6128_n37# via_dev$5$2_9/VSUBS nfet_03v3 ad=0.3375p pd=1.675u as=0.3625p ps=1.725u w=1u l=0.28u
X81 w_n310_281# m2_24_342# a_1845_466# w_n310_281# pfet_03v3 ad=0.735p pd=2.47u as=0.42p ps=1.84u w=1u l=0.28u
X82 a_870_n37# a_378_271# via_dev$5$2_9/VSUBS via_dev$5$2_9/VSUBS nfet_03v3 ad=0.3625p pd=1.725u as=0.54p ps=3.08u w=1u l=0.28u
X83 a_12559_3# a_11922_3# w_n310_281# w_n310_281# pfet_03v3 ad=0.65p pd=3.3u as=0.675p ps=3.35u w=1u l=0.28u
C0 w_n310_281# a_2419_63# 0.75129f
C1 w_n310_281# a_160_63# 0.30515f
C2 w_n310_281# a_6721_407# 0.72579f
C3 a_7410_63# a_8361_407# 0.1423f
C4 a_4290_63# m2_1295_79# 0.13519f
C5 a_5042_n37# a_4158_271# 0
C6 w_n310_281# m2_9431_79# 0.46254f
C7 w_n310_281# a_10906_n37# 0
C8 a_7410_63# a_7083_63# 0.07718f
C9 a_2419_63# a_8919_367# 0.01445f
C10 a_7410_63# m2_1295_79# 0.07614f
C11 a_6128_n37# m2_6151_79# 0.01733f
C12 w_n310_281# a_5042_407# 0.29911f
C13 w_n310_281# a_11480_63# 0.37298f
C14 a_7410_63# a_8723_63# 0.01398f
C15 a_8919_367# m2_9431_79# 0.03216f
C16 a_378_271# a_705_407# 0.02817f
C17 w_n310_281# a_3940_63# 0.30087f
C18 a_6128_n37# a_6721_407# 0
C19 w_n310_281# a_12559_3# 0.08598f
C20 w_n310_281# a_2861_391# 0.03535f
C21 a_378_271# a_160_63# 0.09182f
C22 a_4290_63# a_4650_n37# 0.01502f
C23 a_6128_n37# a_5042_407# 0.00376f
C24 a_2419_63# a_9050_63# 0.00801f
C25 a_2861_3# a_4290_63# 0
C26 a_9050_63# m2_9431_79# 0.328f
C27 m2_5700_324# w_n310_281# 1.65678f
C28 a_510_63# a_1845_466# 0.01433f
C29 a_6520_n37# m2_6151_79# 0.00766f
C30 a_510_63# m2_1295_79# 0.39896f
C31 m2_5700_324# a_8919_367# 0
C32 a_7768_n37# m2_7791_79# 0.01733f
C33 a_4290_63# a_5042_n37# 0.00898f
C34 a_6520_n37# a_5042_407# 0.00483f
C35 a_870_n37# m2_1295_79# 0.00639f
C36 a_1845_466# a_870_n37# 0
C37 a_7768_n37# a_8361_407# 0
C38 a_7768_n37# a_7083_63# 0.0028f
C39 w_n310_281# a_8919_367# 0.49838f
C40 a_8160_n37# m2_7791_79# 0.01048f
C41 m2_24_342# a_705_407# 0.10607f
C42 a_1845_466# a_1262_n37# 0
C43 a_1262_n37# m2_1295_79# 0.01607f
C44 w_n310_281# a_378_271# 0.6337f
C45 w_n310_281# a_9050_63# 0.28931f
C46 m2_24_342# a_3498_3# 0
C47 m2_24_342# a_2419_63# 0.00234f
C48 m2_24_342# a_160_63# 0.42316f
C49 a_8160_n37# a_7083_63# 0.00507f
C50 a_8919_367# a_9050_63# 0.10006f
C51 a_9408_n37# m2_9431_79# 0.01733f
C52 a_7410_63# a_7768_n37# 0.00935f
C53 a_5768_63# m2_6151_79# 0.35511f
C54 m2_6151_79# m2_7791_79# 0.00114f
C55 a_5768_63# a_3498_3# 0
C56 a_3498_3# m2_7791_79# 0.0296f
C57 a_2419_63# a_5768_63# 0.07749f
C58 a_2419_63# m2_7791_79# 0.00843f
C59 a_3498_3# a_5243_407# 0.16427f
C60 a_5768_63# a_6721_407# 0.14017f
C61 a_2419_63# a_5243_407# 0
C62 a_510_63# a_870_n37# 0.01502f
C63 m2_6151_79# a_4158_271# 0.04334f
C64 m2_7791_79# m2_9431_79# 0.01571f
C65 a_9800_n37# m2_9431_79# 0.0074f
C66 a_2419_63# a_9609_407# 0
C67 a_3498_3# a_4158_271# 0.00829f
C68 a_5768_63# a_5042_407# 0.22596f
C69 a_2419_63# a_4158_271# 0.14782f
C70 a_5042_407# m2_7791_79# 0.00555f
C71 a_1845_466# a_705_407# 0.0126f
C72 a_705_407# m2_1295_79# 0.30816f
C73 m2_6151_79# a_7083_63# 0.08089f
C74 a_9609_407# m2_9431_79# 0.49779f
C75 a_5243_407# a_5042_407# 0.29512f
C76 a_3498_3# a_8361_407# 0.12093f
C77 a_2419_63# a_10363_63# 0.00126f
C78 a_7410_63# a_8160_n37# 0.01329f
C79 a_2419_63# a_8361_407# 0
C80 m2_9431_79# a_4158_271# 0.05572f
C81 a_10906_n37# a_4158_271# 0.00824f
C82 m2_1295_79# m2_6151_79# 0.00667f
C83 a_3498_3# a_7083_63# 0.01356f
C84 a_2419_63# a_11922_3# 0.16984f
C85 a_5768_63# a_3940_63# 0
C86 a_2419_63# a_7083_63# 0.01345f
C87 a_1845_466# a_3498_3# 0.00105f
C88 a_3498_3# m2_1295_79# 0.3391f
C89 a_10363_63# m2_9431_79# 0.07766f
C90 a_11480_63# a_9609_407# 0
C91 a_10363_63# a_10906_n37# 0
C92 a_2419_63# a_1845_466# 0.10509f
C93 w_n310_281# a_1845_n37# 0
C94 a_5042_407# a_4158_271# 0.63867f
C95 a_8361_407# m2_9431_79# 0
C96 a_6721_407# a_7083_63# 0.01268f
C97 a_1845_466# a_160_63# 0
C98 a_2419_63# m2_1295_79# 0.32461f
C99 a_160_63# m2_1295_79# 0.09339f
C100 a_5243_407# a_3940_63# 0.06737f
C101 a_11480_63# a_4158_271# 0.00295f
C102 m2_9431_79# a_7083_63# 0.19293f
C103 a_3498_3# a_8723_63# 0.00575f
C104 m2_1295_79# a_6721_407# 0.00452f
C105 a_2419_63# a_11922_391# 0.00754f
C106 a_10363_63# a_11480_63# 0
C107 a_2419_63# a_8723_63# 0.00661f
C108 m2_1295_79# m2_9431_79# 0.0078f
C109 a_11480_63# a_11922_3# 0.04054f
C110 m2_24_342# w_n310_281# 0.66878f
C111 a_3940_63# a_4158_271# 0.16366f
C112 a_5042_407# a_7083_63# 0.02611f
C113 a_510_63# a_1262_n37# 0.00898f
C114 m2_9431_79# a_8723_63# 0.13485f
C115 m2_1295_79# a_5042_407# 0.03487f
C116 a_2419_63# a_10906_466# 0.00833f
C117 a_11480_63# m2_1295_79# 0.00126f
C118 m2_5700_324# a_5768_63# 0.16447f
C119 m2_5700_324# m2_7791_79# 0.05245f
C120 a_11480_63# a_11922_391# 0.00152f
C121 m2_5700_324# a_5243_407# 0.01927f
C122 a_2861_3# a_705_407# 0
C123 a_10906_466# m2_9431_79# 0.00167f
C124 a_10906_466# a_10906_n37# 0.01333f
C125 a_11922_3# a_12559_3# 0.0899f
C126 a_1845_466# a_3940_63# 0
C127 m2_1295_79# a_3940_63# 0.46061f
C128 a_11480_63# a_10906_466# 0.1131f
C129 m2_5700_324# a_4158_271# 0.00861f
C130 a_2861_3# a_3498_3# 0.09846f
C131 a_2419_63# a_2861_3# 0.21478f
C132 a_2861_391# m2_1295_79# 0.00841f
C133 m2_5700_324# a_8361_407# 0.05956f
C134 m2_5700_324# a_7083_63# 0.12051f
C135 a_4290_63# m2_6151_79# 0
C136 a_4650_n37# a_5042_407# 0.00712f
C137 a_10906_466# a_12559_3# 0
C138 m2_24_342# a_378_271# 0.56715f
C139 m2_5700_324# m2_1295_79# 0.07849f
C140 a_4290_63# a_3498_3# 0.00876f
C141 a_7410_63# m2_6151_79# 0
C142 a_2419_63# a_4290_63# 0.00652f
C143 w_n310_281# a_5768_63# 0.31314f
C144 a_2861_3# a_5042_407# 0
C145 w_n310_281# m2_7791_79# 0.45139f
C146 a_9050_63# a_9408_n37# 0.00935f
C147 a_7410_63# a_3498_3# 0.11774f
C148 m2_5700_324# a_8723_63# 0
C149 w_n310_281# a_5243_407# 0.78984f
C150 a_4650_n37# a_3940_63# 0.00441f
C151 a_2419_63# a_7410_63# 0.00801f
C152 a_5042_n37# m2_6151_79# 0
C153 a_2861_3# a_3940_63# 0
C154 w_n310_281# a_9609_407# 0.7653f
C155 a_7410_63# m2_9431_79# 0.00105f
C156 a_8919_367# m2_7791_79# 0.02774f
C157 a_4290_63# a_5042_407# 0.38112f
C158 w_n310_281# a_4158_271# 0.66883f
C159 w_n310_281# a_10363_63# 0.15741f
C160 a_7410_63# a_5042_407# 0
C161 a_2861_391# a_2861_3# 0.01616f
C162 a_5768_63# a_6128_n37# 0.00935f
C163 w_n310_281# a_8361_407# 0.75753f
C164 w_n310_281# a_11922_3# 0.46598f
C165 a_8919_367# a_9609_407# 0.02942f
C166 a_4290_63# a_3940_63# 0.28903f
C167 w_n310_281# a_7083_63# 0.31663f
C168 a_8919_367# a_4158_271# 0.001f
C169 w_n310_281# a_1845_466# 0.44517f
C170 a_510_63# a_705_407# 0.13828f
C171 w_n310_281# m2_1295_79# 2.3522f
C172 a_5042_n37# a_5042_407# 0.01726f
C173 a_8919_367# a_10363_63# 0
C174 w_n310_281# a_11922_391# 0.03535f
C175 a_8919_367# a_8361_407# 0
C176 w_n310_281# a_8723_63# 0.33584f
C177 a_9050_63# m2_7791_79# 0.00127f
C178 a_8919_367# a_7083_63# 0.01057f
C179 a_9050_63# a_9800_n37# 0.01329f
C180 a_8919_367# m2_1295_79# 0.01372f
C181 a_510_63# a_160_63# 0.28903f
C182 w_n310_281# a_10906_466# 0.44509f
C183 m2_5700_324# a_4290_63# 0.01531f
C184 a_8919_367# a_8723_63# 0.12587f
C185 a_9050_63# a_9609_407# 0.1261f
C186 m2_5700_324# a_7410_63# 0.14432f
C187 a_9050_63# a_4158_271# 0.00717f
C188 a_5768_63# a_6520_n37# 0.01329f
C189 a_9050_63# a_10363_63# 0.01385f
C190 a_9050_63# a_8361_407# 0
C191 a_9050_63# a_7083_63# 0.21474f
C192 a_378_271# a_1845_466# 0.01278f
C193 w_n310_281# a_2861_3# 0.4655f
C194 a_378_271# m2_1295_79# 0.02669f
C195 a_9050_63# m2_1295_79# 0.00716f
C196 a_870_n37# a_160_63# 0.00441f
C197 a_6520_n37# a_4158_271# 0.00406f
C198 a_9050_63# a_8723_63# 0.53121f
C199 w_n310_281# a_4290_63# 0.2819f
C200 a_6520_n37# a_7083_63# 0.00272f
C201 w_n310_281# a_7410_63# 0.31086f
C202 a_1262_n37# a_705_407# 0
C203 a_7768_n37# m2_9431_79# 0
C204 a_7410_63# a_8919_367# 0
C205 w_n310_281# a_510_63# 0.28255f
C206 a_9408_n37# m2_7791_79# 0
C207 a_8160_n37# m2_9431_79# 0
C208 a_9408_n37# a_9609_407# 0
C209 a_1845_466# a_1845_n37# 0.01333f
C210 a_1845_n37# m2_1295_79# 0.00942f
C211 m2_24_342# a_1845_466# 0.06999f
C212 m2_24_342# m2_1295_79# 0.04399f
C213 a_9408_n37# a_7083_63# 0.00336f
C214 a_378_271# a_510_63# 0.14298f
C215 a_5768_63# m2_7791_79# 0
C216 a_5768_63# a_5243_407# 0.00722f
C217 a_2419_63# a_705_407# 0
C218 a_705_407# a_160_63# 0.06737f
C219 a_9609_407# m2_7791_79# 0
C220 a_3498_3# m2_6151_79# 0
C221 a_5768_63# a_4158_271# 0.00573f
C222 m2_7791_79# a_4158_271# 0
C223 a_2419_63# m2_6151_79# 0.05852f
C224 a_9800_n37# a_4158_271# 0.00497f
C225 a_5243_407# a_4158_271# 0.02964f
C226 a_6721_407# m2_6151_79# 0.4935f
C227 a_2419_63# a_3498_3# 0.01177f
C228 a_8361_407# m2_7791_79# 0.49779f
C229 a_3498_3# a_6721_407# 0
C230 a_5768_63# a_7083_63# 0.01494f
C231 m2_7791_79# a_7083_63# 0.14708f
C232 a_9609_407# a_4158_271# 0
C233 a_2419_63# a_6721_407# 0.01825f
C234 a_9800_n37# a_7083_63# 0.00527f
C235 a_3498_3# m2_9431_79# 0
C236 a_5768_63# m2_1295_79# 0.00766f
C237 a_2419_63# m2_9431_79# 0.00832f
C238 a_5042_407# m2_6151_79# 0.20459f
C239 m2_1295_79# m2_7791_79# 0.05731f
C240 a_10363_63# a_9609_407# 0.01306f
C241 a_8361_407# a_9609_407# 0.00466f
C242 a_3498_3# a_5042_407# 0.02015f
C243 a_5243_407# m2_1295_79# 0.10989f
C244 a_10363_63# a_4158_271# 0.02222f
C245 m2_7791_79# a_8723_63# 0.08396f
C246 a_9609_407# a_7083_63# 0.0285f
C247 a_2419_63# a_5042_407# 0.08051f
C248 a_11922_3# a_4158_271# 0.0013f
C249 a_2419_63# a_11480_63# 0.0769f
C250 a_7083_63# a_4158_271# 1.09133f
C251 a_5042_407# a_6721_407# 0.03265f
C252 m2_1295_79# a_9609_407# 0.0093f
C253 m2_1295_79# a_4158_271# 0.16058f
C254 a_2861_391# a_705_407# 0
C255 a_3498_3# a_3940_63# 0.04602f
C256 a_10363_63# a_7083_63# 0.00582f
C257 a_11480_63# m2_9431_79# 0
C258 a_2419_63# a_3940_63# 0.00879f
C259 a_8361_407# a_7083_63# 0.01453f
C260 a_9609_407# a_8723_63# 0.0593f
C261 a_10363_63# m2_1295_79# 0.00179f
C262 a_8723_63# a_4158_271# 0
C263 m2_1295_79# a_8361_407# 0.02509f
C264 a_2419_63# a_12559_3# 0
C265 a_11922_3# m2_1295_79# 0
C266 a_2861_391# a_3498_3# 0.00454f
C267 m2_1295_79# a_7083_63# 0.01071f
C268 a_10363_63# a_8723_63# 0
C269 a_10906_466# a_9609_407# 0
C270 a_11922_391# a_11922_3# 0.01891f
C271 a_2419_63# a_2861_391# 0.0163f
C272 a_8361_407# a_8723_63# 0.01268f
C273 a_1845_466# m2_1295_79# 0.09644f
C274 a_10906_466# a_4158_271# 0.03873f
C275 a_8723_63# a_7083_63# 0.15796f
C276 m2_5700_324# m2_6151_79# 0.14941f
C277 a_3940_63# a_5042_407# 0.0941f
C278 a_10363_63# a_10906_466# 0.02047f
C279 m2_5700_324# a_3498_3# 0.55174f
C280 m2_1295_79# a_8723_63# 0.00803f
C281 a_10906_466# a_11922_3# 0
C282 m2_5700_324# a_2419_63# 0.074f
C283 a_2861_3# a_5243_407# 0
C284 a_10906_466# a_7083_63# 0
C285 a_510_63# a_1845_n37# 0.0011f
C286 m2_5700_324# a_6721_407# 0.50857f
C287 a_4650_n37# a_4158_271# 0.00383f
C288 a_10906_466# m2_1295_79# 0.0692f
C289 a_4290_63# a_5768_63# 0.01093f
C290 m2_24_342# a_510_63# 0.13025f
C291 a_4290_63# a_5243_407# 0.14023f
C292 m2_5700_324# a_5042_407# 0.06917f
C293 a_7410_63# m2_7791_79# 0.36168f
C294 w_n310_281# a_705_407# 0.79414f
C295 a_1845_466# a_2861_3# 0
C296 a_4290_63# a_4158_271# 0.11363f
C297 m2_5700_324# a_3940_63# 0.00132f
C298 a_2861_3# m2_1295_79# 0.15381f
C299 w_n310_281# m2_6151_79# 0.44301f
C300 w_n310_281# a_3498_3# 1.03377f
C301 a_5042_n37# a_5243_407# 0
C302 a_7410_63# a_4158_271# 0
C303 a_4158_271# via_dev$5$2_9/VSUBS 2.63898f
C304 a_7083_63# via_dev$5$2_9/VSUBS 0.86585f
C305 a_8723_63# via_dev$5$2_9/VSUBS 0.41121f
C306 m2_9431_79# via_dev$5$2_9/VSUBS 0.75255f
C307 m2_7791_79# via_dev$5$2_9/VSUBS 0.74612f
C308 a_9609_407# via_dev$5$2_9/VSUBS 0.11967f
C309 a_8361_407# via_dev$5$2_9/VSUBS 0.05216f
C310 m2_6151_79# via_dev$5$2_9/VSUBS 0.72815f
C311 a_6721_407# via_dev$5$2_9/VSUBS 0.01698f
C312 a_5042_407# via_dev$5$2_9/VSUBS 0.88916f
C313 a_3940_63# via_dev$5$2_9/VSUBS 0.46864f
C314 m2_1295_79# via_dev$5$2_9/VSUBS 3.37184f
C315 a_160_63# via_dev$5$2_9/VSUBS 0.5921f
C316 a_5243_407# via_dev$5$2_9/VSUBS 0.01661f
C317 a_705_407# via_dev$5$2_9/VSUBS 0.13677f
C318 a_3498_3# via_dev$5$2_9/VSUBS 1.27724f
C319 a_10906_n37# via_dev$5$2_9/VSUBS 0.02232f
C320 a_9800_n37# via_dev$5$2_9/VSUBS 0.01742f
C321 a_9408_n37# via_dev$5$2_9/VSUBS 0.007f
C322 a_8160_n37# via_dev$5$2_9/VSUBS 0.01743f
C323 a_7768_n37# via_dev$5$2_9/VSUBS 0.007f
C324 a_6520_n37# via_dev$5$2_9/VSUBS 0.01743f
C325 a_6128_n37# via_dev$5$2_9/VSUBS 0.007f
C326 a_5042_n37# via_dev$5$2_9/VSUBS 0.00833f
C327 a_4650_n37# via_dev$5$2_9/VSUBS 0.01565f
C328 a_12559_3# via_dev$5$2_9/VSUBS 0.19481f
C329 a_11922_3# via_dev$5$2_9/VSUBS 0.64569f
C330 a_11922_391# via_dev$5$2_9/VSUBS 0.00119f
C331 a_10906_466# via_dev$5$2_9/VSUBS 0.59796f
C332 a_11480_63# via_dev$5$2_9/VSUBS 0.42359f
C333 a_10363_63# via_dev$5$2_9/VSUBS 0.13924f
C334 a_9050_63# via_dev$5$2_9/VSUBS 0.53264f
C335 a_8919_367# via_dev$5$2_9/VSUBS 0.51866f
C336 a_7410_63# via_dev$5$2_9/VSUBS 0.53731f
C337 a_5768_63# via_dev$5$2_9/VSUBS 0.54f
C338 a_1845_n37# via_dev$5$2_9/VSUBS 0.01974f
C339 a_1262_n37# via_dev$5$2_9/VSUBS 0.0069f
C340 a_870_n37# via_dev$5$2_9/VSUBS 0.01517f
C341 a_4290_63# via_dev$5$2_9/VSUBS 0.57048f
C342 a_2861_3# via_dev$5$2_9/VSUBS 0.62907f
C343 a_1845_466# via_dev$5$2_9/VSUBS 0.59853f
C344 a_2419_63# via_dev$5$2_9/VSUBS 6.64114f
C345 a_510_63# via_dev$5$2_9/VSUBS 0.55998f
C346 a_378_271# via_dev$5$2_9/VSUBS 1.37769f
C347 w_n310_281# via_dev$5$2_9/VSUBS 27.01716f
C348 m2_24_342# via_dev$5$2_9/VSUBS 1.98211f
C349 m2_5700_324# via_dev$5$2_9/VSUBS 1.14834f
.ends

.subckt AND4 w_237_91# a_992_79# a_372_n441# a_1200_79# a_1686_n317# a_784_79# a_704_n441#
+ a_576_79# a_912_n441# a_518_229# a_1120_n441#
X0 w_237_91# a_992_79# a_518_229# w_237_91# pfet_03v3 ad=0.38p pd=1.76u as=0.38p ps=1.76u w=1u l=0.28u
X1 a_518_229# a_784_79# w_237_91# w_237_91# pfet_03v3 ad=0.38p pd=1.76u as=0.38p ps=1.76u w=1u l=0.28u
X2 a_1686_n317# a_518_229# w_237_91# w_237_91# pfet_03v3 ad=0.65p pd=3.3u as=0.65p ps=3.3u w=1u l=0.28u
X3 a_912_n441# a_784_79# a_704_n441# a_372_n441# nfet_03v3 ad=0.76p pd=2.76u as=0.76p ps=2.76u w=2u l=0.28u
X4 w_237_91# a_576_79# a_518_229# w_237_91# pfet_03v3 ad=0.38p pd=1.76u as=0.65p ps=3.3u w=1u l=0.28u
X5 a_704_n441# a_576_79# a_372_n441# a_372_n441# nfet_03v3 ad=0.76p pd=2.76u as=1.34p ps=5.34u w=2u l=0.28u
X6 a_518_229# a_1200_79# a_1120_n441# a_372_n441# nfet_03v3 ad=1.14p pd=5.14u as=0.76p ps=2.76u w=2u l=0.28u
X7 a_1686_n317# a_518_229# a_372_n441# a_372_n441# nfet_03v3 ad=0.315p pd=2.26u as=0.295p ps=2.18u w=0.5u l=0.28u
X8 a_518_229# a_1200_79# w_237_91# w_237_91# pfet_03v3 ad=0.55p pd=3.1u as=0.38p ps=1.76u w=1u l=0.28u
X9 a_1120_n441# a_992_79# a_912_n441# a_372_n441# nfet_03v3 ad=0.76p pd=2.76u as=0.76p ps=2.76u w=2u l=0.28u
C0 a_1686_n317# a_518_229# 0.12995f
C1 a_1120_n441# a_518_229# 0.02253f
C2 a_1200_79# a_518_229# 0.20239f
C3 a_1200_79# a_1120_n441# 0.00663f
C4 a_912_n441# a_992_79# 0.00663f
C5 a_704_n441# a_518_229# 0.01032f
C6 a_784_79# a_992_79# 0.06396f
C7 w_237_91# a_784_79# 0.14715f
C8 a_784_79# a_576_79# 0.06396f
C9 a_912_n441# a_518_229# 0.01471f
C10 a_784_79# a_518_229# 0.11673f
C11 w_237_91# a_992_79# 0.1469f
C12 w_237_91# a_576_79# 0.16514f
C13 a_704_n441# a_784_79# 0.00663f
C14 w_237_91# a_1686_n317# 0.1612f
C15 a_518_229# a_992_79# 0.12168f
C16 w_237_91# a_518_229# 1.12672f
C17 a_1200_79# a_992_79# 0.06396f
C18 w_237_91# a_1200_79# 0.15686f
C19 a_518_229# a_576_79# 0.11544f
C20 a_1120_n441# a_372_n441# 0.02626f
C21 a_912_n441# a_372_n441# 0.02949f
C22 a_704_n441# a_372_n441# 0.03642f
C23 a_1686_n317# a_372_n441# 0.20646f
C24 a_518_229# a_372_n441# 0.81795f
C25 a_1200_79# a_372_n441# 0.2334f
C26 a_992_79# a_372_n441# 0.22559f
C27 a_784_79# a_372_n441# 0.22803f
C28 a_576_79# a_372_n441# 0.27946f
C29 w_237_91# a_372_n441# 2.88366f
.ends

.subckt x1bitblock$3 a_2861_3# a_8361_407# a_6520_n37# a_1262_n37# a_2861_391# a_1845_466#
+ a_10906_n37# a_510_63# a_870_n37# a_6721_407# a_9800_n37# a_11480_63# a_6128_n37#
+ a_5768_63# m2_6151_79# a_11922_391# a_5042_n37# a_9408_n37# a_9609_407# a_5042_407#
+ a_8160_n37# a_4158_271# a_11922_3# a_8918_358# a_2419_63# m2_9431_79# a_10906_466#
+ a_4650_n37# a_9050_63# a_5243_407# a_7768_n37# a_3940_63# m2_7791_79# a_10363_63#
+ a_160_63# a_4290_63# a_7083_63# a_705_407# a_12559_3# a_7410_63# a_1845_n37# m2_5700_324#
+ via_dev$5$3_9/VSUBS a_3498_3# m2_1295_79# a_8723_63# a_378_271# w_n310_281# m2_24_342#
X0 a_2419_63# a_1845_466# via_dev$5$3_9/VSUBS via_dev$5$3_9/VSUBS nfet_03v3 ad=0.315p pd=2.26u as=0.2425p ps=1.97u w=0.5u l=0.28u
X1 a_1845_466# m2_24_342# a_1845_n37# via_dev$5$3_9/VSUBS nfet_03v3 ad=0.65p pd=3.3u as=0.42p ps=1.84u w=1u l=0.28u
X2 a_3940_63# m2_1295_79# w_n310_281# w_n310_281# pfet_03v3 ad=0.63p pd=3.26u as=0.65p ps=3.3u w=1u l=0.28u
X3 via_dev$5$3_9/VSUBS a_510_63# a_1262_n37# via_dev$5$3_9/VSUBS nfet_03v3 ad=0.65p pd=3.3u as=0.3625p ps=1.725u w=1u l=0.28u