* NGSPICE file created from 4bitblock.ext - technology: gf180mcuD

.subckt MUX21 a_1472_63# a_157_63# a_25_271# a_909_n37# a_650_n277# a_517_n37# a_718_407#
+ m2_540_79# via_dev$11_4/VSUBS a_846_955# w_n310_281#
X0 a_1472_63# m2_540_79# via_dev$11_4/VSUBS via_dev$11_4/VSUBS nfet_03v3 ad=0.2625p pd=2.05u as=0.265p ps=2.06u w=0.5u l=0.28u
X1 a_157_63# a_25_271# w_n310_281# w_n310_281# pfet_03v3 ad=0.65p pd=3.3u as=0.635p ps=3.27u w=1u l=0.28u
X2 a_718_407# a_650_n277# m2_540_79# w_n310_281# pfet_03v3 ad=0.675p pd=2.675u as=0.725p ps=2.725u w=2u l=0.28u
X3 a_517_n37# a_25_271# via_dev$11_4/VSUBS via_dev$11_4/VSUBS nfet_03v3 ad=0.3625p pd=1.725u as=0.54p ps=3.08u w=1u l=0.28u
X4 via_dev$11_4/VSUBS a_157_63# a_909_n37# via_dev$11_4/VSUBS nfet_03v3 ad=0.65p pd=3.3u as=0.3625p ps=1.725u w=1u l=0.28u
X5 m2_540_79# a_25_271# a_718_407# w_n310_281# pfet_03v3 ad=0.725p pd=2.725u as=1.09p ps=5.09u w=2u l=0.28u
X6 a_157_63# a_25_271# via_dev$11_4/VSUBS via_dev$11_4/VSUBS nfet_03v3 ad=0.315p pd=2.26u as=0.3175p ps=2.27u w=0.5u l=0.28u
X7 a_718_407# a_157_63# w_n310_281# w_n310_281# pfet_03v3 ad=1.3p pd=5.3u as=0.725p ps=2.725u w=2u l=0.28u
X8 a_909_n37# a_846_955# m2_540_79# via_dev$11_4/VSUBS nfet_03v3 ad=0.3625p pd=1.725u as=0.3375p ps=1.675u w=1u l=0.28u
X9 w_n310_281# a_846_955# a_718_407# w_n310_281# pfet_03v3 ad=0.725p pd=2.725u as=0.675p ps=2.675u w=2u l=0.28u
X10 a_1472_63# m2_540_79# w_n310_281# w_n310_281# pfet_03v3 ad=0.545p pd=3.09u as=0.53p ps=3.06u w=1u l=0.28u
X11 m2_540_79# a_650_n277# a_517_n37# via_dev$11_4/VSUBS nfet_03v3 ad=0.3375p pd=1.675u as=0.3625p ps=1.725u w=1u l=0.28u
C0 a_517_n37# m2_540_79# 0.01733f
C1 a_718_407# w_n310_281# 0.7633f
C2 a_1472_63# a_157_63# 0.0156f
C3 a_909_n37# m2_540_79# 0.01048f
C4 w_n310_281# a_25_271# 0.47695f
C5 a_718_407# a_25_271# 0.03028f
C6 m2_540_79# a_846_955# 0.017f
C7 a_846_955# a_650_n277# 0.04128f
C8 w_n310_281# a_157_63# 0.32903f
C9 m2_540_79# a_650_n277# 0.03687f
C10 a_718_407# a_157_63# 0.14486f
C11 a_25_271# a_157_63# 0.11031f
C12 a_1472_63# a_846_955# 0
C13 a_517_n37# a_718_407# 0
C14 a_1472_63# m2_540_79# 0.0785f
C15 a_1472_63# a_650_n277# 0
C16 w_n310_281# a_846_955# 0.19275f
C17 a_718_407# a_846_955# 0.01845f
C18 a_517_n37# a_157_63# 0.00935f
C19 m2_540_79# w_n310_281# 0.45246f
C20 a_718_407# m2_540_79# 0.49779f
C21 w_n310_281# a_650_n277# 0.11257f
C22 a_718_407# a_650_n277# 0.01687f
C23 a_909_n37# a_157_63# 0.01329f
C24 m2_540_79# a_25_271# 0.03352f
C25 a_25_271# a_650_n277# 0.03814f
C26 a_846_955# a_157_63# 0.07151f
C27 m2_540_79# a_157_63# 0.36591f
C28 a_650_n277# a_157_63# 0.02096f
C29 a_1472_63# w_n310_281# 0.10269f
C30 a_1472_63# a_718_407# 0.01268f
C31 a_1472_63# a_25_271# 0
C32 m2_540_79# via_dev$11_4/VSUBS 0.94619f
C33 a_718_407# via_dev$11_4/VSUBS 0.15332f
C34 a_909_n37# via_dev$11_4/VSUBS 0.01743f
C35 a_517_n37# via_dev$11_4/VSUBS 0.007f
C36 a_1472_63# via_dev$11_4/VSUBS 0.17252f
C37 a_157_63# via_dev$11_4/VSUBS 0.63396f
C38 a_650_n277# via_dev$11_4/VSUBS 0.37069f
C39 a_25_271# via_dev$11_4/VSUBS 0.66513f
C40 a_846_955# via_dev$11_4/VSUBS 0.36058f
C41 w_n310_281# via_dev$11_4/VSUBS 4.23822f
.ends

.subckt x1bitblock$2 a_2861_3# a_8361_407# a_6520_n37# a_1262_n37# a_2861_391# a_1845_466#
+ a_10906_n37# a_510_63# a_870_n37# a_6721_407# a_9800_n37# a_11480_63# a_6128_n37#
+ a_5768_63# a_8919_367# m2_6151_79# a_11922_391# a_5042_n37# a_9408_n37# a_9609_407#
+ a_5042_407# a_8160_n37# a_4158_271# a_11922_3# a_2419_63# m2_9431_79# a_10906_466#
+ a_4650_n37# a_9050_63# a_5243_407# a_7768_n37# a_3940_63# m2_7791_79# a_10363_63#
+ a_160_63# a_4290_63# a_7083_63# a_705_407# a_12559_3# a_7410_63# m2_5700_324# a_1845_n37#
+ via_dev$5$2_9/VSUBS m2_1295_79# a_8723_63# a_378_271# a_3498_3# w_n310_281# m2_24_342#
X0 a_2419_63# a_1845_466# via_dev$5$2_9/VSUBS via_dev$5$2_9/VSUBS nfet_03v3 ad=0.315p pd=2.26u as=0.2425p ps=1.97u w=0.5u l=0.28u
X1 a_1845_466# m2_24_342# a_1845_n37# via_dev$5$2_9/VSUBS nfet_03v3 ad=0.65p pd=3.3u as=0.42p ps=1.84u w=1u l=0.28u
X2 a_3940_63# m2_1295_79# w_n310_281# w_n310_281# pfet_03v3 ad=0.63p pd=3.26u as=0.65p ps=3.3u w=1u l=0.28u
X3 via_dev$5$2_9/VSUBS a_510_63# a_1262_n37# via_dev$5$2_9/VSUBS nfet_03v3 ad=0.65p pd=3.3u as=0.3625p ps=1.725u w=1u l=0.28u
X4 a_5243_407# a_4290_63# a_5042_407# w_n310_281# pfet_03v3 ad=1.3p pd=5.3u as=0.725p ps=2.725u w=2u l=0.28u
X5 a_6721_407# a_2419_63# m2_6151_79# w_n310_281# pfet_03v3 ad=0.675p pd=2.675u as=0.725p ps=2.725u w=2u l=0.28u
X6 a_10906_466# a_4158_271# w_n310_281# w_n310_281# pfet_03v3 ad=0.42p pd=1.84u as=0.65p ps=3.3u w=1u l=0.28u
X7 a_4290_63# a_4158_271# via_dev$5$2_9/VSUBS via_dev$5$2_9/VSUBS nfet_03v3 ad=0.315p pd=2.26u as=0.28p ps=2.12u w=0.5u l=0.28u
X8 w_n310_281# a_378_271# a_705_407# w_n310_281# pfet_03v3 ad=0.725p pd=2.725u as=1.09p ps=5.09u w=2u l=0.28u
X9 a_2861_3# m2_1295_79# via_dev$5$2_9/VSUBS via_dev$5$2_9/VSUBS nfet_03v3 ad=0.18125p pd=1.225u as=0.325p ps=2.3u w=0.5u l=0.28u
X10 via_dev$5$2_9/VSUBS a_2419_63# a_2861_3# via_dev$5$2_9/VSUBS nfet_03v3 ad=0.315p pd=2.26u as=0.18125p ps=1.225u w=0.5u l=0.28u
X11 m2_7791_79# m2_1295_79# a_7768_n37# via_dev$5$2_9/VSUBS nfet_03v3 ad=0.3375p pd=1.675u as=0.3625p ps=1.725u w=1u l=0.28u
X12 a_10906_n37# a_4158_271# via_dev$5$2_9/VSUBS via_dev$5$2_9/VSUBS nfet_03v3 ad=0.42p pd=1.84u as=0.63p ps=3.26u w=1u l=0.28u
X13 a_9050_63# a_8919_367# via_dev$5$2_9/VSUBS via_dev$5$2_9/VSUBS nfet_03v3 ad=0.31p pd=2.24u as=0.24p ps=1.96u w=0.5u l=0.28u
X14 a_11922_3# a_11480_63# via_dev$5$2_9/VSUBS via_dev$5$2_9/VSUBS nfet_03v3 ad=0.18125p pd=1.225u as=0.325p ps=2.3u w=0.5u l=0.28u
X15 via_dev$5$2_9/VSUBS a_2419_63# a_11922_3# via_dev$5$2_9/VSUBS nfet_03v3 ad=0.315p pd=2.26u as=0.18125p ps=1.225u w=0.5u l=0.28u
X16 a_705_407# a_510_63# m2_1295_79# w_n310_281# pfet_03v3 ad=1.3p pd=5.3u as=0.725p ps=2.725u w=2u l=0.28u
X17 a_4650_n37# a_4158_271# via_dev$5$2_9/VSUBS via_dev$5$2_9/VSUBS nfet_03v3 ad=0.3625p pd=1.725u as=0.54p ps=3.08u w=1u l=0.28u
X18 a_2861_3# a_2419_63# a_2861_391# w_n310_281# pfet_03v3 ad=1.3p pd=5.3u as=0.725p ps=2.725u w=2u l=0.28u
X19 a_5768_63# m2_5700_324# via_dev$5$2_9/VSUBS via_dev$5$2_9/VSUBS nfet_03v3 ad=0.315p pd=2.26u as=0.3175p ps=2.27u w=0.5u l=0.28u
X20 via_dev$5$2_9/VSUBS a_9050_63# a_9800_n37# via_dev$5$2_9/VSUBS nfet_03v3 ad=0.65p pd=3.3u as=0.3625p ps=1.725u w=1u l=0.28u
X21 a_8361_407# m2_1295_79# m2_7791_79# w_n310_281# pfet_03v3 ad=0.675p pd=2.675u as=0.725p ps=2.725u w=2u l=0.28u
X22 a_9408_n37# a_8919_367# via_dev$5$2_9/VSUBS via_dev$5$2_9/VSUBS nfet_03v3 ad=0.3625p pd=1.725u as=0.54p ps=3.08u w=1u l=0.28u
X23 a_3498_3# a_2861_3# w_n310_281# w_n310_281# pfet_03v3 ad=0.65p pd=3.3u as=0.675p ps=3.35u w=1u l=0.28u
X24 a_7410_63# m2_5700_324# via_dev$5$2_9/VSUBS via_dev$5$2_9/VSUBS nfet_03v3 ad=0.31p pd=2.24u as=0.24p ps=1.96u w=0.5u l=0.28u
X25 via_dev$5$2_9/VSUBS a_7410_63# a_8160_n37# via_dev$5$2_9/VSUBS nfet_03v3 ad=0.65p pd=3.3u as=0.3625p ps=1.725u w=1u l=0.28u
X26 a_8723_63# m2_7791_79# via_dev$5$2_9/VSUBS via_dev$5$2_9/VSUBS nfet_03v3 ad=0.2625p pd=2.05u as=0.265p ps=2.06u w=0.5u l=0.28u
X27 w_n310_281# a_4158_271# a_5243_407# w_n310_281# pfet_03v3 ad=0.725p pd=2.725u as=1.09p ps=5.09u w=2u l=0.28u
X28 a_5768_63# m2_5700_324# w_n310_281# w_n310_281# pfet_03v3 ad=0.65p pd=3.3u as=0.635p ps=3.27u w=1u l=0.28u
X29 a_9050_63# a_8919_367# w_n310_281# w_n310_281# pfet_03v3 ad=0.64p pd=3.28u as=0.48p ps=2.96u w=1u l=0.28u
X30 a_11922_391# a_11480_63# w_n310_281# w_n310_281# pfet_03v3 ad=0.725p pd=2.725u as=1.3p ps=5.3u w=2u l=0.28u
X31 a_160_63# m2_24_342# via_dev$5$2_9/VSUBS via_dev$5$2_9/VSUBS nfet_03v3 ad=0.315p pd=2.26u as=0.325p ps=2.3u w=0.5u l=0.28u
X32 a_9609_407# a_9050_63# w_n310_281# w_n310_281# pfet_03v3 ad=1.3p pd=5.3u as=0.725p ps=2.725u w=2u l=0.28u
X33 a_6128_n37# m2_5700_324# via_dev$5$2_9/VSUBS via_dev$5$2_9/VSUBS nfet_03v3 ad=0.3625p pd=1.725u as=0.54p ps=3.08u w=1u l=0.28u
X34 via_dev$5$2_9/VSUBS a_5768_63# a_6520_n37# via_dev$5$2_9/VSUBS nfet_03v3 ad=0.65p pd=3.3u as=0.3625p ps=1.725u w=1u l=0.28u
X35 a_7410_63# m2_5700_324# w_n310_281# w_n310_281# pfet_03v3 ad=0.64p pd=3.28u as=0.48p ps=2.96u w=1u l=0.28u
X36 m2_9431_79# a_8919_367# a_9609_407# w_n310_281# pfet_03v3 ad=0.725p pd=2.725u as=1.09p ps=5.09u w=2u l=0.28u
X37 a_11480_63# a_10906_466# via_dev$5$2_9/VSUBS via_dev$5$2_9/VSUBS nfet_03v3 ad=0.315p pd=2.26u as=0.2425p ps=1.97u w=0.5u l=0.28u
X38 a_1845_466# a_378_271# w_n310_281# w_n310_281# pfet_03v3 ad=0.42p pd=1.84u as=0.65p ps=3.3u w=1u l=0.28u
X39 a_8361_407# a_7410_63# w_n310_281# w_n310_281# pfet_03v3 ad=1.3p pd=5.3u as=0.725p ps=2.725u w=2u l=0.28u
X40 w_n310_281# m2_1295_79# a_10906_466# w_n310_281# pfet_03v3 ad=0.735p pd=2.47u as=0.42p ps=1.84u w=1u l=0.28u
X41 a_7083_63# m2_6151_79# via_dev$5$2_9/VSUBS via_dev$5$2_9/VSUBS nfet_03v3 ad=0.2625p pd=2.05u as=0.265p ps=2.06u w=0.5u l=0.28u
X42 a_510_63# a_378_271# w_n310_281# w_n310_281# pfet_03v3 ad=0.65p pd=3.3u as=0.56p ps=3.12u w=1u l=0.28u
X43 a_10363_63# m2_9431_79# w_n310_281# w_n310_281# pfet_03v3 ad=0.715p pd=3.43u as=0.53p ps=3.06u w=1u l=0.28u
X44 a_510_63# a_378_271# via_dev$5$2_9/VSUBS via_dev$5$2_9/VSUBS nfet_03v3 ad=0.315p pd=2.26u as=0.28p ps=2.12u w=0.5u l=0.28u
X45 a_1262_n37# a_160_63# m2_1295_79# via_dev$5$2_9/VSUBS nfet_03v3 ad=0.3625p pd=1.725u as=0.3375p ps=1.675u w=1u l=0.28u
X46 a_1845_n37# a_378_271# via_dev$5$2_9/VSUBS via_dev$5$2_9/VSUBS nfet_03v3 ad=0.42p pd=1.84u as=0.63p ps=3.26u w=1u l=0.28u
X47 m2_6151_79# m2_5700_324# a_6721_407# w_n310_281# pfet_03v3 ad=0.725p pd=2.725u as=1.09p ps=5.09u w=2u l=0.28u
X48 a_6721_407# a_5768_63# w_n310_281# w_n310_281# pfet_03v3 ad=1.3p pd=5.3u as=0.725p ps=2.725u w=2u l=0.28u
X49 a_10363_63# m2_9431_79# via_dev$5$2_9/VSUBS via_dev$5$2_9/VSUBS nfet_03v3 ad=0.3575p pd=2.43u as=0.265p ps=2.06u w=0.5u l=0.28u
X50 a_10906_466# m2_1295_79# a_10906_n37# via_dev$5$2_9/VSUBS nfet_03v3 ad=0.65p pd=3.3u as=0.42p ps=1.84u w=1u l=0.28u
X51 a_8723_63# m2_7791_79# w_n310_281# w_n310_281# pfet_03v3 ad=0.545p pd=3.09u as=0.53p ps=3.06u w=1u l=0.28u
X52 a_11480_63# a_10906_466# w_n310_281# w_n310_281# pfet_03v3 ad=0.65p pd=3.3u as=0.735p ps=2.47u w=1u l=0.28u
X53 a_12559_3# a_11922_3# via_dev$5$2_9/VSUBS via_dev$5$2_9/VSUBS nfet_03v3 ad=0.315p pd=2.26u as=0.325p ps=2.3u w=0.5u l=0.28u
X54 a_7083_63# m2_6151_79# w_n310_281# w_n310_281# pfet_03v3 ad=0.545p pd=3.09u as=0.53p ps=3.06u w=1u l=0.28u
X55 a_7768_n37# m2_5700_324# via_dev$5$2_9/VSUBS via_dev$5$2_9/VSUBS nfet_03v3 ad=0.3625p pd=1.725u as=0.54p ps=3.08u w=1u l=0.28u
X56 a_160_63# m2_24_342# w_n310_281# w_n310_281# pfet_03v3 ad=0.63p pd=3.26u as=0.65p ps=3.3u w=1u l=0.28u
X57 m2_1295_79# a_160_63# a_705_407# w_n310_281# pfet_03v3 ad=0.725p pd=2.725u as=0.675p ps=2.675u w=2u l=0.28u
X58 a_5042_n37# a_3940_63# a_5042_407# via_dev$5$2_9/VSUBS nfet_03v3 ad=0.3625p pd=1.725u as=0.3375p ps=1.675u w=1u l=0.28u
X59 m2_1295_79# m2_24_342# a_870_n37# via_dev$5$2_9/VSUBS nfet_03v3 ad=0.3375p pd=1.675u as=0.3625p ps=1.725u w=1u l=0.28u
X60 a_11922_3# a_2419_63# a_11922_391# w_n310_281# pfet_03v3 ad=1.3p pd=5.3u as=0.725p ps=2.725u w=2u l=0.28u
X61 a_9800_n37# a_7083_63# m2_9431_79# via_dev$5$2_9/VSUBS nfet_03v3 ad=0.3625p pd=1.725u as=0.3375p ps=1.675u w=1u l=0.28u
X62 m2_7791_79# m2_5700_324# a_8361_407# w_n310_281# pfet_03v3 ad=0.725p pd=2.725u as=1.09p ps=5.09u w=2u l=0.28u
X63 a_5042_407# a_3940_63# a_5243_407# w_n310_281# pfet_03v3 ad=0.725p pd=2.725u as=0.675p ps=2.675u w=2u l=0.28u
X64 a_3940_63# m2_1295_79# via_dev$5$2_9/VSUBS via_dev$5$2_9/VSUBS nfet_03v3 ad=0.315p pd=2.26u as=0.325p ps=2.3u w=0.5u l=0.28u
X65 a_8160_n37# a_3498_3# m2_7791_79# via_dev$5$2_9/VSUBS nfet_03v3 ad=0.3625p pd=1.725u as=0.3375p ps=1.675u w=1u l=0.28u
X66 a_705_407# m2_24_342# w_n310_281# w_n310_281# pfet_03v3 ad=0.675p pd=2.675u as=0.725p ps=2.725u w=2u l=0.28u
X67 a_5042_407# m2_1295_79# a_4650_n37# via_dev$5$2_9/VSUBS nfet_03v3 ad=0.3375p pd=1.675u as=0.3625p ps=1.725u w=1u l=0.28u
X68 a_6520_n37# a_5042_407# m2_6151_79# via_dev$5$2_9/VSUBS nfet_03v3 ad=0.3625p pd=1.725u as=0.3375p ps=1.675u w=1u l=0.28u
X69 w_n310_281# a_7083_63# a_9609_407# w_n310_281# pfet_03v3 ad=0.725p pd=2.725u as=0.675p ps=2.675u w=2u l=0.28u
X70 a_2419_63# a_1845_466# w_n310_281# w_n310_281# pfet_03v3 ad=0.65p pd=3.3u as=0.735p ps=2.47u w=1u l=0.28u
X71 m2_9431_79# a_8723_63# a_9408_n37# via_dev$5$2_9/VSUBS nfet_03v3 ad=0.3375p pd=1.675u as=0.3625p ps=1.725u w=1u l=0.28u
X72 w_n310_281# a_3498_3# a_8361_407# w_n310_281# pfet_03v3 ad=0.725p pd=2.725u as=0.675p ps=2.675u w=2u l=0.28u
X73 a_2861_391# m2_1295_79# w_n310_281# w_n310_281# pfet_03v3 ad=0.725p pd=2.725u as=1.3p ps=5.3u w=2u l=0.28u
X74 a_4290_63# a_4158_271# w_n310_281# w_n310_281# pfet_03v3 ad=0.65p pd=3.3u as=0.56p ps=3.12u w=1u l=0.28u
X75 a_5243_407# m2_1295_79# w_n310_281# w_n310_281# pfet_03v3 ad=0.675p pd=2.675u as=0.725p ps=2.725u w=2u l=0.28u
X76 w_n310_281# a_5042_407# a_6721_407# w_n310_281# pfet_03v3 ad=0.725p pd=2.725u as=0.675p ps=2.675u w=2u l=0.28u
X77 a_3498_3# a_2861_3# via_dev$5$2_9/VSUBS via_dev$5$2_9/VSUBS nfet_03v3 ad=0.315p pd=2.26u as=0.325p ps=2.3u w=0.5u l=0.28u
X78 a_9609_407# a_8723_63# m2_9431_79# w_n310_281# pfet_03v3 ad=0.675p pd=2.675u as=0.725p ps=2.725u w=2u l=0.28u
X79 via_dev$5$2_9/VSUBS a_4290_63# a_5042_n37# via_dev$5$2_9/VSUBS nfet_03v3 ad=0.65p pd=3.3u as=0.3625p ps=1.725u w=1u l=0.28u
X80 m2_6151_79# a_2419_63# a_6128_n37# via_dev$5$2_9/VSUBS nfet_03v3 ad=0.3375p pd=1.675u as=0.3625p ps=1.725u w=1u l=0.28u
X81 w_n310_281# m2_24_342# a_1845_466# w_n310_281# pfet_03v3 ad=0.735p pd=2.47u as=0.42p ps=1.84u w=1u l=0.28u
X82 a_870_n37# a_378_271# via_dev$5$2_9/VSUBS via_dev$5$2_9/VSUBS nfet_03v3 ad=0.3625p pd=1.725u as=0.54p ps=3.08u w=1u l=0.28u
X83 a_12559_3# a_11922_3# w_n310_281# w_n310_281# pfet_03v3 ad=0.65p pd=3.3u as=0.675p ps=3.35u w=1u l=0.28u
C0 m2_6151_79# w_n310_281# 0.44301f
C1 m2_7791_79# a_8160_n37# 0.01048f
C2 m2_6151_79# a_2419_63# 0.05852f
C3 m2_6151_79# m2_5700_324# 0.14941f
C4 m2_1295_79# a_3940_63# 0.46061f
C5 a_10363_63# w_n310_281# 0.15741f
C6 a_510_63# a_1845_466# 0.01433f
C7 m2_9431_79# a_7410_63# 0.00105f
C8 m2_7791_79# a_8919_367# 0.02774f
C9 a_11922_3# w_n310_281# 0.46598f
C10 a_10363_63# a_2419_63# 0.00126f
C11 m2_9431_79# w_n310_281# 0.46254f
C12 m2_1295_79# a_1845_n37# 0.00942f
C13 a_11922_3# a_2419_63# 0.16984f
C14 m2_9431_79# a_2419_63# 0.00832f
C15 a_5768_63# m2_1295_79# 0.00766f
C16 a_9609_407# a_8919_367# 0.02942f
C17 a_11922_391# w_n310_281# 0.03535f
C18 a_4158_271# a_8919_367# 0.001f
C19 a_7083_63# a_8160_n37# 0.00507f
C20 a_11922_391# a_2419_63# 0.00754f
C21 a_8361_407# a_8919_367# 0
C22 a_10906_466# w_n310_281# 0.44509f
C23 m2_7791_79# a_9050_63# 0.00127f
C24 a_7083_63# a_8919_367# 0.01057f
C25 m2_9431_79# a_9408_n37# 0.01733f
C26 a_10906_466# a_2419_63# 0.00833f
C27 a_5243_407# w_n310_281# 0.78984f
C28 a_705_407# m2_24_342# 0.10607f
C29 a_5243_407# a_2419_63# 0
C30 a_5243_407# m2_5700_324# 0.01927f
C31 a_8723_63# a_8919_367# 0.12587f
C32 a_9609_407# a_9050_63# 0.1261f
C33 a_4158_271# a_9050_63# 0.00717f
C34 a_3498_3# m2_24_342# 0
C35 a_705_407# a_1845_466# 0.0126f
C36 a_160_63# m2_24_342# 0.42316f
C37 a_8361_407# a_9050_63# 0
C38 a_7083_63# a_9050_63# 0.21474f
C39 m2_1295_79# a_7410_63# 0.07614f
C40 m2_1295_79# w_n310_281# 2.3522f
C41 a_3498_3# a_1845_466# 0.00105f
C42 a_160_63# a_1845_466# 0
C43 m2_1295_79# a_2419_63# 0.32461f
C44 m2_1295_79# m2_5700_324# 0.07849f
C45 a_4650_n37# a_4290_63# 0.01502f
C46 a_8723_63# a_9050_63# 0.53121f
C47 m2_9431_79# a_9800_n37# 0.0074f
C48 m2_6151_79# a_4290_63# 0
C49 a_705_407# a_2861_3# 0
C50 a_3940_63# a_1845_466# 0
C51 a_7768_n37# a_7410_63# 0.00935f
C52 m2_1295_79# a_378_271# 0.02669f
C53 a_3498_3# a_2861_3# 0.09846f
C54 a_1845_n37# a_1845_466# 0.01333f
C55 a_10363_63# a_10906_n37# 0
C56 m2_1295_79# a_2861_391# 0.00841f
C57 a_5042_n37# a_4290_63# 0.00898f
C58 a_5042_407# a_2861_3# 0
C59 a_5243_407# a_4290_63# 0.14023f
C60 a_10906_466# a_10906_n37# 0.01333f
C61 a_9609_407# m2_7791_79# 0
C62 a_3940_63# a_2861_3# 0
C63 a_8160_n37# a_7410_63# 0.01329f
C64 m2_7791_79# a_4158_271# 0
C65 w_n310_281# m2_24_342# 0.66878f
C66 a_8361_407# m2_7791_79# 0.49779f
C67 a_7410_63# a_8919_367# 0
C68 m2_24_342# a_2419_63# 0.00234f
C69 m2_7791_79# a_7083_63# 0.14708f
C70 a_9609_407# a_4158_271# 0
C71 w_n310_281# a_8919_367# 0.49838f
C72 m2_1295_79# a_4290_63# 0.13519f
C73 a_8919_367# a_2419_63# 0.01445f
C74 a_705_407# a_510_63# 0.13828f
C75 a_10363_63# m2_9431_79# 0.07766f
C76 a_11480_63# a_9609_407# 0
C77 w_n310_281# a_1845_466# 0.44517f
C78 m2_5700_324# a_8919_367# 0
C79 a_8361_407# a_9609_407# 0.00466f
C80 m2_6151_79# a_5042_n37# 0
C81 a_11480_63# a_4158_271# 0.00295f
C82 m2_7791_79# a_8723_63# 0.08396f
C83 a_9609_407# a_7083_63# 0.0285f
C84 a_2419_63# a_1845_466# 0.10509f
C85 a_7083_63# a_4158_271# 1.09133f
C86 a_160_63# a_510_63# 0.28903f
C87 a_11922_391# a_11922_3# 0.01891f
C88 a_8361_407# a_7083_63# 0.01453f
C89 a_9609_407# a_8723_63# 0.0593f
C90 m2_7791_79# a_3498_3# 0.0296f
C91 a_8723_63# a_4158_271# 0
C92 w_n310_281# a_9050_63# 0.28931f
C93 a_10363_63# a_10906_466# 0.02047f
C94 a_9050_63# a_2419_63# 0.00801f
C95 a_10906_466# a_11922_3# 0
C96 a_378_271# m2_24_342# 0.56715f
C97 a_10906_466# m2_9431_79# 0.00167f
C98 a_8361_407# a_8723_63# 0.01268f
C99 a_8723_63# a_7083_63# 0.15796f
C100 a_4158_271# a_3498_3# 0.00829f
C101 m2_7791_79# a_5042_407# 0.00555f
C102 a_378_271# a_1845_466# 0.01278f
C103 w_n310_281# a_2861_3# 0.4655f
C104 a_8361_407# a_3498_3# 0.12093f
C105 a_2419_63# a_2861_3# 0.21478f
C106 m2_6151_79# m2_1295_79# 0.00667f
C107 a_7083_63# a_3498_3# 0.01356f
C108 a_5042_n37# a_5243_407# 0
C109 a_9408_n37# a_9050_63# 0.00935f
C110 a_1845_n37# a_510_63# 0.0011f
C111 a_4158_271# a_5042_407# 0.63867f
C112 a_7083_63# a_6721_407# 0.01268f
C113 a_10363_63# m2_1295_79# 0.00179f
C114 a_8723_63# a_3498_3# 0.00575f
C115 a_11922_3# m2_1295_79# 0
C116 m2_9431_79# m2_1295_79# 0.0078f
C117 a_705_407# a_160_63# 0.06737f
C118 m2_7791_79# a_5768_63# 0
C119 a_4158_271# a_3940_63# 0.16366f
C120 a_7083_63# a_5042_407# 0.02611f
C121 a_4158_271# a_6520_n37# 0.00406f
C122 m2_1295_79# a_870_n37# 0.00639f
C123 a_3498_3# a_6721_407# 0
C124 a_6128_n37# a_6721_407# 0
C125 a_4158_271# a_5768_63# 0.00573f
C126 a_10906_466# m2_1295_79# 0.0692f
C127 a_2861_391# a_2861_3# 0.01616f
C128 a_7083_63# a_6520_n37# 0.00272f
C129 a_9800_n37# a_9050_63# 0.01329f
C130 a_3498_3# a_5042_407# 0.02015f
C131 a_5243_407# m2_1295_79# 0.10989f
C132 a_6128_n37# a_5042_407# 0.00376f
C133 a_7083_63# a_5768_63# 0.01494f
C134 a_5042_407# a_6721_407# 0.03265f
C135 m2_9431_79# a_7768_n37# 0
C136 a_3498_3# a_3940_63# 0.04602f
C137 w_n310_281# a_510_63# 0.28255f
C138 m2_7791_79# a_7410_63# 0.36168f
C139 m2_7791_79# w_n310_281# 0.45139f
C140 m2_1295_79# a_1262_n37# 0.01607f
C141 a_5768_63# a_3498_3# 0
C142 m2_7791_79# a_2419_63# 0.00843f
C143 a_6128_n37# a_5768_63# 0.00935f
C144 m2_7791_79# m2_5700_324# 0.05245f
C145 a_3940_63# a_5042_407# 0.0941f
C146 a_5768_63# a_6721_407# 0.14017f
C147 a_9609_407# w_n310_281# 0.7653f
C148 a_4158_271# a_7410_63# 0
C149 a_4158_271# w_n310_281# 0.66883f
C150 a_9609_407# a_2419_63# 0
C151 a_4290_63# a_2861_3# 0
C152 a_6520_n37# a_5042_407# 0.00483f
C153 a_4158_271# a_2419_63# 0.14782f
C154 a_8361_407# a_7410_63# 0.1423f
C155 a_4158_271# m2_5700_324# 0.00861f
C156 a_11480_63# w_n310_281# 0.37298f
C157 a_5768_63# a_5042_407# 0.22596f
C158 a_8361_407# w_n310_281# 0.75753f
C159 a_7083_63# a_7410_63# 0.07718f
C160 m2_7791_79# a_9408_n37# 0
C161 m2_9431_79# a_8160_n37# 0
C162 a_11480_63# a_2419_63# 0.0769f
C163 a_7083_63# w_n310_281# 0.31663f
C164 a_8361_407# a_2419_63# 0
C165 a_8361_407# m2_5700_324# 0.05956f
C166 a_378_271# a_510_63# 0.14298f
C167 a_7083_63# a_2419_63# 0.01345f
C168 a_10363_63# a_8919_367# 0
C169 a_7083_63# m2_5700_324# 0.12051f
C170 a_5768_63# a_3940_63# 0
C171 a_8723_63# a_7410_63# 0.01398f
C172 m2_9431_79# a_8919_367# 0.03216f
C173 a_9609_407# a_9408_n37# 0
C174 a_12559_3# w_n310_281# 0.08598f
C175 a_8723_63# w_n310_281# 0.33584f
C176 a_705_407# w_n310_281# 0.79414f
C177 a_12559_3# a_2419_63# 0
C178 a_8723_63# a_2419_63# 0.00661f
C179 a_6520_n37# a_5768_63# 0.01329f
C180 a_705_407# a_2419_63# 0
C181 a_8723_63# m2_5700_324# 0
C182 a_3498_3# a_7410_63# 0.11774f
C183 a_3498_3# w_n310_281# 1.03377f
C184 a_7083_63# a_9408_n37# 0.00336f
C185 a_160_63# w_n310_281# 0.30515f
C186 a_3498_3# a_2419_63# 0.01177f
C187 a_870_n37# a_1845_466# 0
C188 a_3498_3# m2_5700_324# 0.55174f
C189 a_10363_63# a_9050_63# 0.01385f
C190 a_6721_407# w_n310_281# 0.72579f
C191 m2_9431_79# a_9050_63# 0.328f
C192 a_6721_407# a_2419_63# 0.01825f
C193 a_6721_407# m2_5700_324# 0.50857f
C194 a_5042_407# a_7410_63# 0
C195 a_5042_407# w_n310_281# 0.29911f
C196 a_5042_407# a_2419_63# 0.08051f
C197 a_5042_407# m2_5700_324# 0.06917f
C198 a_705_407# a_378_271# 0.02817f
C199 a_4158_271# a_9800_n37# 0.00497f
C200 a_705_407# a_2861_391# 0
C201 a_3940_63# w_n310_281# 0.30087f
C202 m2_1295_79# m2_24_342# 0.04399f
C203 a_3940_63# a_2419_63# 0.00879f
C204 a_3940_63# m2_5700_324# 0.00132f
C205 w_n310_281# a_1845_n37# 0
C206 a_7083_63# a_9800_n37# 0.00527f
C207 m2_1295_79# a_8919_367# 0.01372f
C208 a_160_63# a_378_271# 0.09182f
C209 a_3498_3# a_2861_391# 0.00454f
C210 a_1262_n37# a_1845_466# 0
C211 a_5768_63# w_n310_281# 0.31314f
C212 m2_1295_79# a_1845_466# 0.09644f
C213 a_5768_63# a_2419_63# 0.07749f
C214 a_4158_271# a_4290_63# 0.11363f
C215 a_5768_63# m2_5700_324# 0.16447f
C216 a_5243_407# a_2861_3# 0
C217 a_4158_271# a_10906_n37# 0.00824f
C218 m2_1295_79# a_9050_63# 0.00716f
C219 m2_6151_79# m2_7791_79# 0.00114f
C220 m2_1295_79# a_2861_3# 0.15381f
C221 a_3498_3# a_4290_63# 0.00876f
C222 w_n310_281# a_7410_63# 0.31086f
C223 a_4158_271# a_4650_n37# 0.00383f
C224 a_7410_63# a_2419_63# 0.00801f
C225 m2_5700_324# a_7410_63# 0.14432f
C226 w_n310_281# a_2419_63# 0.75129f
C227 w_n310_281# m2_5700_324# 1.65678f
C228 m2_6151_79# a_4158_271# 0.04334f
C229 m2_7791_79# m2_9431_79# 0.01571f
C230 m2_5700_324# a_2419_63# 0.074f
C231 a_870_n37# a_510_63# 0.01502f
C232 a_5042_407# a_4290_63# 0.38112f
C233 a_10363_63# a_9609_407# 0.01306f
C234 a_10363_63# a_4158_271# 0.02222f
C235 m2_6151_79# a_7083_63# 0.08089f
C236 a_9609_407# m2_9431_79# 0.49779f
C237 a_11922_3# a_4158_271# 0.0013f
C238 m2_9431_79# a_4158_271# 0.05572f
C239 a_10363_63# a_11480_63# 0
C240 a_3940_63# a_4290_63# 0.28903f
C241 a_11480_63# a_11922_3# 0.04054f
C242 a_11480_63# m2_9431_79# 0
C243 a_10363_63# a_7083_63# 0.00582f
C244 a_8361_407# m2_9431_79# 0
C245 m2_24_342# a_1845_466# 0.06999f
C246 m2_9431_79# a_7083_63# 0.19293f
C247 a_4158_271# a_5042_n37# 0
C248 w_n310_281# a_378_271# 0.6337f
C249 a_5768_63# a_4290_63# 0.01093f
C250 a_11480_63# a_11922_391# 0.00152f
C251 a_10363_63# a_8723_63# 0
C252 a_10906_466# a_9609_407# 0
C253 w_n310_281# a_2861_391# 0.03535f
C254 m2_6151_79# a_3498_3# 0
C255 a_11922_3# a_12559_3# 0.0899f
C256 m2_6151_79# a_6128_n37# 0.01733f
C257 a_10906_466# a_4158_271# 0.03873f
C258 m2_9431_79# a_8723_63# 0.13485f
C259 a_2419_63# a_2861_391# 0.0163f
C260 a_4158_271# a_5243_407# 0.02964f
C261 m2_6151_79# a_6721_407# 0.4935f
C262 a_1262_n37# a_510_63# 0.00898f
C263 a_11480_63# a_10906_466# 0.1131f
C264 a_4650_n37# a_5042_407# 0.00712f
C265 m2_1295_79# a_510_63# 0.39896f
C266 a_10906_466# a_7083_63# 0
C267 m2_9431_79# a_3498_3# 0
C268 a_8919_367# a_9050_63# 0.10006f
C269 m2_6151_79# a_5042_407# 0.20459f
C270 m2_7791_79# m2_1295_79# 0.05731f
C271 a_4650_n37# a_3940_63# 0.00441f
C272 a_10906_466# a_12559_3# 0
C273 a_9609_407# m2_1295_79# 0.0093f
C274 a_160_63# a_870_n37# 0.00441f
C275 a_4158_271# m2_1295_79# 0.16058f
C276 m2_6151_79# a_6520_n37# 0.00766f
C277 a_11480_63# m2_1295_79# 0.00126f
C278 a_1845_466# a_2861_3# 0
C279 a_8361_407# m2_1295_79# 0.02509f
C280 w_n310_281# a_4290_63# 0.2819f
C281 a_3498_3# a_5243_407# 0.16427f
C282 m2_6151_79# a_5768_63# 0.35511f
C283 a_7083_63# m2_1295_79# 0.01071f
C284 a_4290_63# a_2419_63# 0.00652f
C285 a_5042_n37# a_5042_407# 0.01726f
C286 m2_5700_324# a_4290_63# 0.01531f
C287 m2_7791_79# a_7768_n37# 0.01733f
C288 a_705_407# a_1262_n37# 0
C289 a_8723_63# m2_1295_79# 0.00803f
C290 a_10906_n37# w_n310_281# 0
C291 a_705_407# m2_1295_79# 0.30816f
C292 a_5243_407# a_5042_407# 0.29512f
C293 a_3498_3# m2_1295_79# 0.3391f
C294 a_160_63# m2_1295_79# 0.09339f
C295 a_5243_407# a_3940_63# 0.06737f
C296 m2_1295_79# a_6721_407# 0.00452f
C297 a_8361_407# a_7768_n37# 0
C298 a_7083_63# a_7768_n37# 0.0028f
C299 a_5768_63# a_5243_407# 0.00722f
C300 m2_6151_79# a_7410_63# 0
C301 m2_1295_79# a_5042_407# 0.03487f
C302 m2_24_342# a_510_63# 0.13025f
C303 a_4158_271# via_dev$5$2_9/VSUBS 2.63898f
C304 a_7083_63# via_dev$5$2_9/VSUBS 0.86585f
C305 a_8723_63# via_dev$5$2_9/VSUBS 0.41121f
C306 m2_9431_79# via_dev$5$2_9/VSUBS 0.75255f
C307 m2_7791_79# via_dev$5$2_9/VSUBS 0.74612f
C308 a_9609_407# via_dev$5$2_9/VSUBS 0.11967f
C309 a_8361_407# via_dev$5$2_9/VSUBS 0.05216f
C310 m2_6151_79# via_dev$5$2_9/VSUBS 0.72815f
C311 a_6721_407# via_dev$5$2_9/VSUBS 0.01698f
C312 a_5042_407# via_dev$5$2_9/VSUBS 0.88916f
C313 a_3940_63# via_dev$5$2_9/VSUBS 0.46864f
C314 m2_1295_79# via_dev$5$2_9/VSUBS 3.37184f
C315 a_160_63# via_dev$5$2_9/VSUBS 0.5921f
C316 a_5243_407# via_dev$5$2_9/VSUBS 0.01661f
C317 a_705_407# via_dev$5$2_9/VSUBS 0.13677f
C318 a_3498_3# via_dev$5$2_9/VSUBS 1.27724f
C319 a_10906_n37# via_dev$5$2_9/VSUBS 0.02232f
C320 a_9800_n37# via_dev$5$2_9/VSUBS 0.01742f
C321 a_9408_n37# via_dev$5$2_9/VSUBS 0.007f
C322 a_8160_n37# via_dev$5$2_9/VSUBS 0.01743f
C323 a_7768_n37# via_dev$5$2_9/VSUBS 0.007f
C324 a_6520_n37# via_dev$5$2_9/VSUBS 0.01743f
C325 a_6128_n37# via_dev$5$2_9/VSUBS 0.007f
C326 a_5042_n37# via_dev$5$2_9/VSUBS 0.00833f
C327 a_4650_n37# via_dev$5$2_9/VSUBS 0.01565f
C328 a_12559_3# via_dev$5$2_9/VSUBS 0.19481f
C329 a_11922_3# via_dev$5$2_9/VSUBS 0.64569f
C330 a_11922_391# via_dev$5$2_9/VSUBS 0.00119f
C331 a_10906_466# via_dev$5$2_9/VSUBS 0.59796f
C332 a_11480_63# via_dev$5$2_9/VSUBS 0.42359f
C333 a_10363_63# via_dev$5$2_9/VSUBS 0.13924f
C334 a_9050_63# via_dev$5$2_9/VSUBS 0.53264f
C335 a_8919_367# via_dev$5$2_9/VSUBS 0.51866f
C336 a_7410_63# via_dev$5$2_9/VSUBS 0.53731f
C337 a_5768_63# via_dev$5$2_9/VSUBS 0.54f
C338 a_1845_n37# via_dev$5$2_9/VSUBS 0.01974f
C339 a_1262_n37# via_dev$5$2_9/VSUBS 0.0069f
C340 a_870_n37# via_dev$5$2_9/VSUBS 0.01517f
C341 a_4290_63# via_dev$5$2_9/VSUBS 0.57048f
C342 a_2861_3# via_dev$5$2_9/VSUBS 0.62907f
C343 a_1845_466# via_dev$5$2_9/VSUBS 0.59853f
C344 a_2419_63# via_dev$5$2_9/VSUBS 6.64114f
C345 a_510_63# via_dev$5$2_9/VSUBS 0.55998f
C346 a_378_271# via_dev$5$2_9/VSUBS 1.37769f
C347 w_n310_281# via_dev$5$2_9/VSUBS 27.01716f
C348 m2_24_342# via_dev$5$2_9/VSUBS 1.98211f
C349 m2_5700_324# via_dev$5$2_9/VSUBS 1.14834f
.ends

.subckt AND4 w_237_91# a_992_79# a_372_n441# a_1200_79# a_1686_n317# a_784_79# a_704_n441#
+ a_576_79# a_912_n441# a_518_229# a_1120_n441#
X0 w_237_91# a_992_79# a_518_229# w_237_91# pfet_03v3 ad=0.38p pd=1.76u as=0.38p ps=1.76u w=1u l=0.28u
X1 a_518_229# a_784_79# w_237_91# w_237_91# pfet_03v3 ad=0.38p pd=1.76u as=0.38p ps=1.76u w=1u l=0.28u
X2 a_1686_n317# a_518_229# w_237_91# w_237_91# pfet_03v3 ad=0.65p pd=3.3u as=0.65p ps=3.3u w=1u l=0.28u
X3 a_912_n441# a_784_79# a_704_n441# a_372_n441# nfet_03v3 ad=0.76p pd=2.76u as=0.76p ps=2.76u w=2u l=0.28u
X4 w_237_91# a_576_79# a_518_229# w_237_91# pfet_03v3 ad=0.38p pd=1.76u as=0.65p ps=3.3u w=1u l=0.28u
X5 a_704_n441# a_576_79# a_372_n441# a_372_n441# nfet_03v3 ad=0.76p pd=2.76u as=1.34p ps=5.34u w=2u l=0.28u
X6 a_518_229# a_1200_79# a_1120_n441# a_372_n441# nfet_03v3 ad=1.14p pd=5.14u as=0.76p ps=2.76u w=2u l=0.28u
X7 a_1686_n317# a_518_229# a_372_n441# a_372_n441# nfet_03v3 ad=0.315p pd=2.26u as=0.295p ps=2.18u w=0.5u l=0.28u
X8 a_518_229# a_1200_79# w_237_91# w_237_91# pfet_03v3 ad=0.55p pd=3.1u as=0.38p ps=1.76u w=1u l=0.28u
X9 a_1120_n441# a_992_79# a_912_n441# a_372_n441# nfet_03v3 ad=0.76p pd=2.76u as=0.76p ps=2.76u w=2u l=0.28u
C0 a_518_229# a_1686_n317# 0.12995f
C1 w_237_91# a_576_79# 0.16514f
C2 w_237_91# a_1686_n317# 0.1612f
C3 a_912_n441# a_992_79# 0.00663f
C4 a_784_79# a_704_n441# 0.00663f
C5 a_1200_79# a_518_229# 0.20239f
C6 w_237_91# a_518_229# 1.12672f
C7 a_1200_79# w_237_91# 0.15686f
C8 a_784_79# a_992_79# 0.06396f
C9 a_518_229# a_704_n441# 0.01032f
C10 a_518_229# a_992_79# 0.12168f
C11 a_1200_79# a_992_79# 0.06396f
C12 a_912_n441# a_518_229# 0.01471f
C13 w_237_91# a_992_79# 0.1469f
C14 a_1120_n441# a_518_229# 0.02253f
C15 a_784_79# a_576_79# 0.06396f
C16 a_1200_79# a_1120_n441# 0.00663f
C17 a_784_79# a_518_229# 0.11673f
C18 w_237_91# a_784_79# 0.14715f
C19 a_518_229# a_576_79# 0.11544f
C20 a_1120_n441# a_372_n441# 0.02626f
C21 a_912_n441# a_372_n441# 0.02949f
C22 a_704_n441# a_372_n441# 0.03642f
C23 a_1686_n317# a_372_n441# 0.20646f
C24 a_518_229# a_372_n441# 0.81795f
C25 a_1200_79# a_372_n441# 0.2334f
C26 a_992_79# a_372_n441# 0.22559f
C27 a_784_79# a_372_n441# 0.22803f
C28 a_576_79# a_372_n441# 0.27946f
C29 w_237_91# a_372_n441# 2.88366f
.ends

.subckt x1bitblock$3 a_2861_3# a_8361_407# a_6520_n37# a_1262_n37# a_2861_391# a_1845_466#
+ a_10906_n37# a_510_63# a_870_n37# a_9800_n37# a_11480_63# a_6128_n37# a_5768_63#
+ m2_6151_79# a_11922_391# a_5042_n37# a_9408_n37# a_9609_407# a_5042_407# a_8160_n37#
+ a_4158_271# a_11922_3# a_8918_358# a_2419_63# m2_9431_79# a_10906_466# a_4650_n37#
+ a_9050_63# a_7768_n37# a_3940_63# m2_7791_79# a_10363_63# a_160_63# a_4290_63# a_7083_63#
+ a_705_407# a_12559_3# a_7410_63# m2_5700_324# a_1845_n37# via_dev$5$3_9/VSUBS a_3498_3#
+ m2_1295_79# a_8723_63# a_378_271# w_n310_281# m2_24_342#
X0 a_2419_63# a_1845_466# via_dev$5$3_9/VSUBS via_dev$5$3_9/VSUBS nfet_03v3 ad=0.315p pd=2.26u as=0.2425p ps=1.97u w=0.5u l=0.28u
X1 a_1845_466# m2_24_342# a_1845_n37# via_dev$5$3_9/VSUBS nfet_03v3 ad=0.65p pd=3.3u as=0.42p ps=1.84u w=1u l=0.28u
X2 a_3940_63# m2_1295_79# w_n310_281# w_n310_281# pfet_03v3 ad=0.63p pd=3.26u as=0.65p ps=3.3u w=1u l=0.28u
X3 via_dev$5$3_9/VSUBS a_510_63# a_1262_n37# via_dev$5$3_9/VSUBS nfet_03v3 ad=0.65p pd=3.3u as=0.3625p ps=1.725u w=1u l=0.28u